[General]
cmdenv-express-mode = true
cmdenv-autoflush = true
cmdenv-status-frequency = 1s
**.cmdenv-log-level = info

ned-path = .
image-path = ../../images

network = IPv6ExampleScenario

##########################################################
#            Simulation parameters                       #
##########################################################
debug-on-errors = true
print-undisposed = true

sim-time-limit = 200s

**.scalar-recording = false
**.vector-recording = false

**.debug = false
**.coreDebug = false

*.playgroundSizeX = 620m
*.playgroundSizeY = 620m
*.playgroundSizeZ = 50m


##########################################################
# Annotation parameters                                  #
##########################################################
*.annotations.draw = true

##########################################################
# Obstacle parameters                                    #
##########################################################
*.obstacles.debug = false
*.obstacles.obstacles = xmldoc("config.xml", "//AnalogueModel[@type='SimpleObstacleShadowing']/obstacles")

##########################################################
#            TraCIScenarioManager parameters             #
##########################################################
*.manager.updateInterval = 0.5s
*.manager.host = "localhost"
*.manager.port = 9999
*.manager.autoShutdown = true
*.manager.launchConfig = xmldoc("oneIntersection.launchd.xml")
*.manager.moduleType = "org.car2x.veins.nodes.CarIPv6"

##########################################################
#          			 TCP parameters    	      			 #
##########################################################

## tcp apps
#**.cli[*].numApps = 1
#**.cli[*].app[*].typename = "TelnetApp"
#**.cli[*].app[0].localAddress = ""
#**.cli[*].app[0].localPort = 1000
##IP address intentionally set incorrectly
#**.cli[*].app[0].connectAddress = "srv[1]"
##**.cli[*].app[0].connectAddress="aaaa:2a:1:0:8aa:ff:fe00:dddd"
#**.cli[*].app[0].connectPort = 1000
#
#**.cli[*].app[0].startTime = uniform(10s,15s)
#**.cli[*].app[0].numCommands = int(exponential(10))
#**.cli[*].app[0].commandLength = intWithUnit(exponential(10B))
#**.cli[*].app[0].keyPressDelay = exponential(0.1s)
#**.cli[*].app[0].commandOutputLength = intWithUnit(exponential(40B))
#**.cli[*].app[0].thinkTime = truncnormal(2s,3s)
#**.cli[*].app[0].idleInterval = truncnormal(3600s,1200s)
#**.cli[*].app[0].reconnectInterval = 30s
#
#**.srv[*].numApps = 1
#**.srv[*].app[*].typename = "TcpGenericServerApp"
#**.srv[*].app[0].localAddress = ""
#**.srv[*].app[0].localPort = 1000
#**.srv[*].app[0].replyDelay = 0s
#
## tcp settings
#**.app[*].dataTransferMode = "object"

# explicit mac addresses (used for testing purposes)
#**.cli[0].eth[0].mac.address = "0A-AA-00-00-00-01"
#**.srv.eth[0].mac.address = "0A-AA-00-00-00-02"
#**.r1.eth[0].mac.address = "0A-AA-00-00-00-03"
#**.r1.eth[1].mac.address = "0A-AA-00-00-00-04"
#**.r2.eth[0].mac.address = "0A-AA-00-00-00-04"
#**.r2.eth[1].mac.address = "0A-AA-00-00-00-06"
#**.r3.eth[0].mac.address = "0A-AA-00-00-00-07"
#**.r3.eth[1].mac.address = "0A-AA-00-00-00-08"

# ping app
#**.numApps = 1
#**.app[0].typename = "PingApp"
#*.rsu[0].app[0].destAddr = "node[0]"
#*.rsu[*].app[0].destAddr = "node[0]"
#*.rsu[*].app[0].sendInterval = 10ms

##########################################################
#                       RSU SETTINGS                     #
#                                                        #
#                                                        #
##########################################################
*.rsu[0].mobility.x = 305
*.rsu[0].mobility.y = 305
*.rsu[0].mobility.z = 3

*.rsu[*].applType = "TraCIDemoRSU11p"
*.rsu[*].appl.headerLength = 80 bit
*.rsu[*].appl.sendBeacons = false
*.rsu[*].appl.dataOnSch = false
*.rsu[*].appl.beaconInterval = 1s
*.rsu[*].appl.beaconUserPriority = 7
*.rsu[*].appl.dataUserPriority = 5

##########################################################
#            11p specific parameters                     #
#                                                        #
#                    NIC-Settings                        #
##########################################################
*.connectionManager.sendDirect = true
*.connectionManager.maxInterfDist = 2600m
*.connectionManager.drawMaxIntfDist = false

*.**.nic.mac1609_4.useServiceChannel = false

*.**.nic.mac1609_4.txPower = 20mW
*.**.nic.mac1609_4.bitrate = 6Mbps
*.**.nic.phy80211p.sensitivity = -89dBm

*.**.nic.phy80211p.useThermalNoise = true
*.**.nic.phy80211p.thermalNoise = -110dBm

*.**.nic.phy80211p.decider = xmldoc("config.xml")
*.**.nic.phy80211p.analogueModels = xmldoc("config.xml")
*.**.nic.phy80211p.usePropagationDelay = true

*.**.nic.phy80211p.antenna = xmldoc("antenna.xml", "/root/Antenna[@id='monopole']")

##########################################################
#                    WaveAppLayer                        #
##########################################################
*.node[*].applType = "TraCIDemo11p"
*.node[*].appl.headerLength = 80 bit
*.node[*].appl.sendBeacons = false
*.node[*].appl.dataOnSch = false
*.node[*].appl.beaconInterval = 1s

##########################################################
#                      Mobility                          #
##########################################################
*.node[*].veinsmobilityType.debug = true
*.node[*].veinsmobility.x = 0
*.node[*].veinsmobility.y = 0
*.node[*].veinsmobility.z = 1.895
*.node[*0].veinsmobility.accidentCount = 0
*.node[*0].veinsmobility.accidentStart = 75s
*.node[*0].veinsmobility.accidentDuration = 50s

[Config Default]

[Config WithBeaconing]
*.rsu[*].appl.sendBeacons = true
*.node[*].appl.sendBeacons = true

[Config WithChannelSwitching]
*.**.nic.mac1609_4.useServiceChannel = true
*.node[*].appl.dataOnSch = true
*.rsu[*].appl.dataOnSch = true

