<?xml version="1.0" encoding="UTF-8"?>

<!-- generated on Wed 05 Sep 2018 10:26:30 PM KST by Netedit Version 0.32.0
<?xml version="1.0" encoding="UTF-8"?>

<configuration xmlns:xsi="http://www.w3.org/2001/XMLSchema-instance" xsi:noNamespaceSchemaLocation="http://sumo.dlr.de/xsd/netconvertConfiguration.xsd">

    <input>
        <sumo-net-file value="/home/chris/usr/CTR_TVT/ESTN/sim/map/single-cross.net.xml"/>
    </input>

    <output>
        <output-file value="/home/chris/usr/CTR_TVT/ESTN/sim/map/single-cross.net.xml"/>
    </output>

    <processing>
        <no-turnarounds value="true"/>
        <offset.disable-normalization value="true"/>
        <lefthand value="false"/>
        <junctions.corner-detail value="0"/>
        <rectangular-lane-cut value="false"/>
        <walkingareas value="false"/>
    </processing>

</configuration>
-->

<net version="0.27" xmlns:xsi="http://www.w3.org/2001/XMLSchema-instance" xsi:noNamespaceSchemaLocation="http://sumo.dlr.de/xsd/net_file.xsd">

    <location netOffset="0.00,0.00" convBoundary="0.00,0.00,600.00,600.00" origBoundary="0.00,0.00,600.00,600.00" projParameter="!"/>

    <edge id=":0/1_0" function="internal">
        <lane id=":0/1_0_0" index="0" speed="22.22" length="14.46" shape="0.00,308.25 -6.19,304.12 -8.25,300.00 -6.19,295.88 0.00,291.75"/>
        <lane id=":0/1_0_1" index="1" speed="22.22" length="14.46" shape="0.00,304.95 -3.71,302.47 -4.95,300.00 -3.71,297.52 0.00,295.05"/>
        <lane id=":0/1_0_2" index="2" speed="22.22" length="14.46" shape="0.00,301.65 -1.24,300.83 -1.65,300.00 -1.24,299.18 0.00,298.35"/>
    </edge>
    <edge id=":1/0_0" function="internal">
        <lane id=":1/0_0_0" index="0" speed="22.22" length="14.46" shape="291.75,0.00 295.88,-6.19 300.00,-8.25 304.12,-6.19 308.25,0.00"/>
        <lane id=":1/0_0_1" index="1" speed="22.22" length="14.46" shape="295.05,0.00 297.53,-3.71 300.00,-4.95 302.48,-3.71 304.95,0.00"/>
        <lane id=":1/0_0_2" index="2" speed="22.22" length="14.46" shape="298.35,0.00 299.17,-1.24 300.00,-1.65 300.82,-1.24 301.65,0.00"/>
    </edge>
    <edge id=":1/1_0" function="internal">
        <lane id=":1/1_0_0" index="0" speed="22.22" length="5.00" shape="291.75,311.35 291.56,309.99 290.98,309.02 290.01,308.44 288.65,308.25"/>
    </edge>
    <edge id=":1/1_1" function="internal">
        <lane id=":1/1_1_0" index="0" speed="22.22" length="22.70" shape="291.75,311.35 291.75,288.65"/>
        <lane id=":1/1_1_1" index="1" speed="22.22" length="22.70" shape="295.05,311.35 295.05,288.65"/>
    </edge>
    <edge id=":1/1_3" function="internal">
        <lane id=":1/1_3_0" index="0" speed="22.22" length="12.52" shape="298.35,311.35 299.16,305.66 301.60,301.60 303.35,300.55"/>
    </edge>
    <edge id=":1/1_16" function="internal">
        <lane id=":1/1_16_0" index="0" speed="22.22" length="8.44" shape="303.35,300.55 305.66,299.16 311.35,298.35"/>
    </edge>
    <edge id=":1/1_4" function="internal">
        <lane id=":1/1_4_0" index="0" speed="22.22" length="5.00" shape="311.35,308.25 309.99,308.44 309.02,309.02 308.44,309.99 308.25,311.35"/>
    </edge>
    <edge id=":1/1_5" function="internal">
        <lane id=":1/1_5_0" index="0" speed="22.22" length="22.70" shape="311.35,308.25 288.65,308.25"/>
        <lane id=":1/1_5_1" index="1" speed="22.22" length="22.70" shape="311.35,304.95 288.65,304.95"/>
    </edge>
    <edge id=":1/1_7" function="internal">
        <lane id=":1/1_7_0" index="0" speed="22.22" length="12.52" shape="311.35,301.65 305.66,300.84 301.60,298.40 300.55,296.65"/>
    </edge>
    <edge id=":1/1_17" function="internal">
        <lane id=":1/1_17_0" index="0" speed="22.22" length="8.44" shape="300.55,296.65 299.16,294.34 298.35,288.65"/>
    </edge>
    <edge id=":1/1_8" function="internal">
        <lane id=":1/1_8_0" index="0" speed="22.22" length="5.00" shape="308.25,288.65 308.44,290.01 309.02,290.98 309.99,291.56 311.35,291.75"/>
    </edge>
    <edge id=":1/1_9" function="internal">
        <lane id=":1/1_9_0" index="0" speed="22.22" length="22.70" shape="308.25,288.65 308.25,311.35"/>
        <lane id=":1/1_9_1" index="1" speed="22.22" length="22.70" shape="304.95,288.65 304.95,311.35"/>
    </edge>
    <edge id=":1/1_11" function="internal">
        <lane id=":1/1_11_0" index="0" speed="22.22" length="12.52" shape="301.65,288.65 300.84,294.34 298.40,298.40 296.65,299.45"/>
    </edge>
    <edge id=":1/1_18" function="internal">
        <lane id=":1/1_18_0" index="0" speed="22.22" length="8.44" shape="296.65,299.45 294.34,300.84 288.65,301.65"/>
    </edge>
    <edge id=":1/1_12" function="internal">
        <lane id=":1/1_12_0" index="0" speed="22.22" length="5.00" shape="288.65,291.75 290.01,291.56 290.98,290.98 291.56,290.01 291.75,288.65"/>
    </edge>
    <edge id=":1/1_13" function="internal">
        <lane id=":1/1_13_0" index="0" speed="22.22" length="22.70" shape="288.65,291.75 311.35,291.75"/>
        <lane id=":1/1_13_1" index="1" speed="22.22" length="22.70" shape="288.65,295.05 311.35,295.05"/>
    </edge>
    <edge id=":1/1_15" function="internal">
        <lane id=":1/1_15_0" index="0" speed="22.22" length="12.52" shape="288.65,298.35 294.34,299.16 298.40,301.60 299.45,303.35"/>
    </edge>
    <edge id=":1/1_19" function="internal">
        <lane id=":1/1_19_0" index="0" speed="22.22" length="8.44" shape="299.45,303.35 300.84,305.66 301.65,311.35"/>
    </edge>
    <edge id=":1/2_0" function="internal">
        <lane id=":1/2_0_0" index="0" speed="22.22" length="14.46" shape="308.25,600.00 304.12,606.19 300.00,608.25 295.88,606.19 291.75,600.00"/>
        <lane id=":1/2_0_1" index="1" speed="22.22" length="14.46" shape="304.95,600.00 302.47,603.71 300.00,604.95 297.52,603.71 295.05,600.00"/>
        <lane id=":1/2_0_2" index="2" speed="22.22" length="14.46" shape="301.65,600.00 300.83,601.24 300.00,601.65 299.18,601.24 298.35,600.00"/>
    </edge>
    <edge id=":2/1_0" function="internal">
        <lane id=":2/1_0_0" index="0" speed="22.22" length="14.46" shape="600.00,291.75 606.19,295.88 608.25,300.00 606.19,304.12 600.00,308.25"/>
        <lane id=":2/1_0_1" index="1" speed="22.22" length="14.46" shape="600.00,295.05 603.71,297.53 604.95,300.00 603.71,302.48 600.00,304.95"/>
        <lane id=":2/1_0_2" index="2" speed="22.22" length="14.46" shape="600.00,298.35 601.24,299.17 601.65,300.00 601.24,300.82 600.00,301.65"/>
    </edge>

    <edge id="0/1to1/1" from="0/1" to="1/1" priority="-1">
        <lane id="0/1to1/1_0" index="0" speed="22.22" length="288.65" shape="0.00,291.75 288.65,291.75"/>
        <lane id="0/1to1/1_1" index="1" speed="22.22" length="288.65" shape="0.00,295.05 288.65,295.05"/>
        <lane id="0/1to1/1_2" index="2" speed="22.22" length="288.65" shape="0.00,298.35 288.65,298.35"/>
    </edge>
    <edge id="1/0to1/1" from="1/0" to="1/1" priority="-1">
        <lane id="1/0to1/1_0" index="0" speed="22.22" length="288.65" shape="308.25,0.00 308.25,288.65"/>
        <lane id="1/0to1/1_1" index="1" speed="22.22" length="288.65" shape="304.95,0.00 304.95,288.65"/>
        <lane id="1/0to1/1_2" index="2" speed="22.22" length="288.65" shape="301.65,0.00 301.65,288.65"/>
    </edge>
    <edge id="1/1to0/1" from="1/1" to="0/1" priority="-1">
        <lane id="1/1to0/1_0" index="0" speed="22.22" length="288.65" shape="288.65,308.25 0.00,308.25"/>
        <lane id="1/1to0/1_1" index="1" speed="22.22" length="288.65" shape="288.65,304.95 0.00,304.95"/>
        <lane id="1/1to0/1_2" index="2" speed="22.22" length="288.65" shape="288.65,301.65 0.00,301.65"/>
    </edge>
    <edge id="1/1to1/0" from="1/1" to="1/0" priority="-1">
        <lane id="1/1to1/0_0" index="0" speed="22.22" length="288.65" shape="291.75,288.65 291.75,0.00"/>
        <lane id="1/1to1/0_1" index="1" speed="22.22" length="288.65" shape="295.05,288.65 295.05,0.00"/>
        <lane id="1/1to1/0_2" index="2" speed="22.22" length="288.65" shape="298.35,288.65 298.35,0.00"/>
    </edge>
    <edge id="1/1to1/2" from="1/1" to="1/2" priority="-1">
        <lane id="1/1to1/2_0" index="0" speed="22.22" length="288.65" shape="308.25,311.35 308.25,600.00"/>
        <lane id="1/1to1/2_1" index="1" speed="22.22" length="288.65" shape="304.95,311.35 304.95,600.00"/>
        <lane id="1/1to1/2_2" index="2" speed="22.22" length="288.65" shape="301.65,311.35 301.65,600.00"/>
    </edge>
    <edge id="1/1to2/1" from="1/1" to="2/1" priority="-1">
        <lane id="1/1to2/1_0" index="0" speed="22.22" length="288.65" shape="311.35,291.75 600.00,291.75"/>
        <lane id="1/1to2/1_1" index="1" speed="22.22" length="288.65" shape="311.35,295.05 600.00,295.05"/>
        <lane id="1/1to2/1_2" index="2" speed="22.22" length="288.65" shape="311.35,298.35 600.00,298.35"/>
    </edge>
    <edge id="1/2to1/1" from="1/2" to="1/1" priority="-1">
        <lane id="1/2to1/1_0" index="0" speed="22.22" length="288.65" shape="291.75,600.00 291.75,311.35"/>
        <lane id="1/2to1/1_1" index="1" speed="22.22" length="288.65" shape="295.05,600.00 295.05,311.35"/>
        <lane id="1/2to1/1_2" index="2" speed="22.22" length="288.65" shape="298.35,600.00 298.35,311.35"/>
    </edge>
    <edge id="2/1to1/1" from="2/1" to="1/1" priority="-1">
        <lane id="2/1to1/1_0" index="0" speed="22.22" length="288.65" shape="600.00,308.25 311.35,308.25"/>
        <lane id="2/1to1/1_1" index="1" speed="22.22" length="288.65" shape="600.00,304.95 311.35,304.95"/>
        <lane id="2/1to1/1_2" index="2" speed="22.22" length="288.65" shape="600.00,301.65 311.35,301.65"/>
    </edge>

    <tlLogic id="0/1" type="static" programID="0" offset="0">
        <phase duration="80" state="GGG"/>
    </tlLogic>
    <tlLogic id="1/0" type="static" programID="0" offset="0">
        <phase duration="80" state="GGG"/>
    </tlLogic>
    <tlLogic id="1/1" type="static" programID="0" offset="0">
        <phase duration="31" state="GGGrsrrrGGGrsrrr"/>
        <phase duration="4" state="yyyysrrryyyysrrr"/>
        <phase duration="6" state="rrrGsrrrrrrGsrrr"/>
        <phase duration="4" state="rrrysrrrrrrysrrr"/>
        <phase duration="31" state="srrrGGGrsrrrGGGr"/>
        <phase duration="4" state="srrryyyysrrryyyy"/>
        <phase duration="6" state="srrrrrrGsrrrrrrG"/>
        <phase duration="4" state="srrrrrrysrrrrrry"/>
    </tlLogic>
    <tlLogic id="1/2" type="static" programID="0" offset="0">
        <phase duration="80" state="GGG"/>
    </tlLogic>
    <tlLogic id="2/1" type="static" programID="0" offset="0">
        <phase duration="80" state="GGG"/>
    </tlLogic>

    <junction id="0/1" type="traffic_light" x="0.00" y="300.00" incLanes="1/1to0/1_0 1/1to0/1_1 1/1to0/1_2" intLanes=":0/1_0_0 :0/1_0_1 :0/1_0_2" shape="0.00,299.95 0.00,309.85 0.00,300.05">
        <request index="0" response="000" foes="000" cont="0"/>
        <request index="1" response="000" foes="000" cont="0"/>
        <request index="2" response="000" foes="000" cont="0"/>
    </junction>
    <junction id="1/0" type="traffic_light" x="300.00" y="0.00" incLanes="1/1to1/0_0 1/1to1/0_1 1/1to1/0_2" intLanes=":1/0_0_0 :1/0_0_1 :1/0_0_2" shape="300.05,0.00 290.15,0.00 299.95,0.00">
        <request index="0" response="000" foes="000" cont="0"/>
        <request index="1" response="000" foes="000" cont="0"/>
        <request index="2" response="000" foes="000" cont="0"/>
    </junction>
    <junction id="1/1" type="traffic_light_right_on_red" x="300.00" y="300.00" incLanes="1/2to1/1_0 1/2to1/1_1 1/2to1/1_2 2/1to1/1_0 2/1to1/1_1 2/1to1/1_2 1/0to1/1_0 1/0to1/1_1 1/0to1/1_2 0/1to1/1_0 0/1to1/1_1 0/1to1/1_2" intLanes=":1/1_0_0 :1/1_1_0 :1/1_1_1 :1/1_16_0 :1/1_4_0 :1/1_5_0 :1/1_5_1 :1/1_17_0 :1/1_8_0 :1/1_9_0 :1/1_9_1 :1/1_18_0 :1/1_12_0 :1/1_13_0 :1/1_13_1 :1/1_19_0" shape="290.15,311.35 309.85,311.35 311.35,309.85 311.35,290.15 309.85,288.65 290.15,288.65 288.65,290.15 288.65,309.85">
        <request index="0" response="0000000001100000" foes="0000100001100000" cont="0"/>
        <request index="1" response="0000000000000000" foes="1111100011100000" cont="0"/>
        <request index="2" response="0000000000000000" foes="1111100011100000" cont="0"/>
        <request index="3" response="0000011100000000" foes="1110011111100000" cont="1"/>
        <request index="4" response="0000011000000000" foes="1000011000000000" cont="0"/>
        <request index="5" response="0000111000001111" foes="1000111000001111" cont="0"/>
        <request index="6" response="0000111000001111" foes="1000111000001111" cont="0"/>
        <request index="7" response="0111111000001110" foes="0111111000001110" cont="1"/>
        <request index="8" response="0110000000000000" foes="0110000000001000" cont="0"/>
        <request index="9" response="0000000000000000" foes="1110000011111000" cont="0"/>
        <request index="10" response="0000000000000000" foes="1110000011111000" cont="0"/>
        <request index="11" response="0000000000000111" foes="1110000011100111" cont="1"/>
        <request index="12" response="0000000000000110" foes="0000000010000110" cont="0"/>
        <request index="13" response="0000111100001110" foes="0000111110001110" cont="0"/>
        <request index="14" response="0000111100001110" foes="0000111110001110" cont="0"/>
        <request index="15" response="0000111001111110" foes="0000111001111110" cont="1"/>
    </junction>
    <junction id="1/2" type="traffic_light" x="300.00" y="600.00" incLanes="1/1to1/2_0 1/1to1/2_1 1/1to1/2_2" intLanes=":1/2_0_0 :1/2_0_1 :1/2_0_2" shape="299.95,600.00 309.85,600.00 300.05,600.00">
        <request index="0" response="000" foes="000" cont="0"/>
        <request index="1" response="000" foes="000" cont="0"/>
        <request index="2" response="000" foes="000" cont="0"/>
    </junction>
    <junction id="2/1" type="traffic_light" x="600.00" y="300.00" incLanes="1/1to2/1_0 1/1to2/1_1 1/1to2/1_2" intLanes=":2/1_0_0 :2/1_0_1 :2/1_0_2" shape="600.00,300.05 600.00,290.15 600.00,299.95">
        <request index="0" response="000" foes="000" cont="0"/>
        <request index="1" response="000" foes="000" cont="0"/>
        <request index="2" response="000" foes="000" cont="0"/>
    </junction>

    <junction id=":1/1_16_0" type="internal" x="303.35" y="300.55" incLanes=":1/1_3_0 1/0to1/1_0 1/0to1/1_1" intLanes=":1/1_5_0 :1/1_5_1 :1/1_7_0 :1/1_8_0 :1/1_9_0 :1/1_9_1 :1/1_13_0 :1/1_13_1 :1/1_15_0"/>
    <junction id=":1/1_17_0" type="internal" x="300.55" y="296.65" incLanes=":1/1_7_0 0/1to1/1_0 0/1to1/1_1" intLanes=":1/1_1_0 :1/1_1_1 :1/1_3_0 :1/1_9_0 :1/1_9_1 :1/1_11_0 :1/1_12_0 :1/1_13_0 :1/1_13_1"/>
    <junction id=":1/1_18_0" type="internal" x="296.65" y="299.45" incLanes=":1/1_11_0 1/2to1/1_0 1/2to1/1_1" intLanes=":1/1_0_0 :1/1_1_0 :1/1_1_1 :1/1_5_0 :1/1_5_1 :1/1_7_0 :1/1_13_0 :1/1_13_1 :1/1_15_0"/>
    <junction id=":1/1_19_0" type="internal" x="299.45" y="303.35" incLanes=":1/1_15_0 2/1to1/1_0 2/1to1/1_1" intLanes=":1/1_1_0 :1/1_1_1 :1/1_3_0 :1/1_4_0 :1/1_5_0 :1/1_5_1 :1/1_9_0 :1/1_9_1 :1/1_11_0"/>

    <connection from="0/1to1/1" to="1/1to1/0" fromLane="0" toLane="0" via=":1/1_12_0" tl="1/1" linkIndex="12" dir="r" state="o"/>
    <connection from="0/1to1/1" to="1/1to2/1" fromLane="0" toLane="0" via=":1/1_13_0" tl="1/1" linkIndex="13" dir="s" state="o"/>
    <connection from="0/1to1/1" to="1/1to2/1" fromLane="1" toLane="1" via=":1/1_13_1" tl="1/1" linkIndex="14" dir="s" state="o"/>
    <connection from="0/1to1/1" to="1/1to1/2" fromLane="2" toLane="2" via=":1/1_15_0" tl="1/1" linkIndex="15" dir="l" state="o"/>
    <connection from="1/0to1/1" to="1/1to2/1" fromLane="0" toLane="0" via=":1/1_8_0" tl="1/1" linkIndex="8" dir="r" state="o"/>
    <connection from="1/0to1/1" to="1/1to1/2" fromLane="0" toLane="0" via=":1/1_9_0" tl="1/1" linkIndex="9" dir="s" state="o"/>
    <connection from="1/0to1/1" to="1/1to1/2" fromLane="1" toLane="1" via=":1/1_9_1" tl="1/1" linkIndex="10" dir="s" state="o"/>
    <connection from="1/0to1/1" to="1/1to0/1" fromLane="2" toLane="2" via=":1/1_11_0" tl="1/1" linkIndex="11" dir="l" state="o"/>
    <connection from="1/1to0/1" to="0/1to1/1" fromLane="0" toLane="0" via=":0/1_0_0" tl="0/1" linkIndex="0" dir="t" state="o"/>
    <connection from="1/1to0/1" to="0/1to1/1" fromLane="1" toLane="1" via=":0/1_0_1" tl="0/1" linkIndex="1" dir="t" state="o"/>
    <connection from="1/1to0/1" to="0/1to1/1" fromLane="2" toLane="2" via=":0/1_0_2" tl="0/1" linkIndex="2" dir="t" state="o"/>
    <connection from="1/1to1/0" to="1/0to1/1" fromLane="0" toLane="0" via=":1/0_0_0" tl="1/0" linkIndex="0" dir="t" state="o"/>
    <connection from="1/1to1/0" to="1/0to1/1" fromLane="1" toLane="1" via=":1/0_0_1" tl="1/0" linkIndex="1" dir="t" state="o"/>
    <connection from="1/1to1/0" to="1/0to1/1" fromLane="2" toLane="2" via=":1/0_0_2" tl="1/0" linkIndex="2" dir="t" state="o"/>
    <connection from="1/1to1/2" to="1/2to1/1" fromLane="0" toLane="0" via=":1/2_0_0" tl="1/2" linkIndex="0" dir="t" state="o"/>
    <connection from="1/1to1/2" to="1/2to1/1" fromLane="1" toLane="1" via=":1/2_0_1" tl="1/2" linkIndex="1" dir="t" state="o"/>
    <connection from="1/1to1/2" to="1/2to1/1" fromLane="2" toLane="2" via=":1/2_0_2" tl="1/2" linkIndex="2" dir="t" state="o"/>
    <connection from="1/1to2/1" to="2/1to1/1" fromLane="0" toLane="0" via=":2/1_0_0" tl="2/1" linkIndex="0" dir="t" state="o"/>
    <connection from="1/1to2/1" to="2/1to1/1" fromLane="1" toLane="1" via=":2/1_0_1" tl="2/1" linkIndex="1" dir="t" state="o"/>
    <connection from="1/1to2/1" to="2/1to1/1" fromLane="2" toLane="2" via=":2/1_0_2" tl="2/1" linkIndex="2" dir="t" state="o"/>
    <connection from="1/2to1/1" to="1/1to0/1" fromLane="0" toLane="0" via=":1/1_0_0" tl="1/1" linkIndex="0" dir="r" state="o"/>
    <connection from="1/2to1/1" to="1/1to1/0" fromLane="0" toLane="0" via=":1/1_1_0" tl="1/1" linkIndex="1" dir="s" state="o"/>
    <connection from="1/2to1/1" to="1/1to1/0" fromLane="1" toLane="1" via=":1/1_1_1" tl="1/1" linkIndex="2" dir="s" state="o"/>
    <connection from="1/2to1/1" to="1/1to2/1" fromLane="2" toLane="2" via=":1/1_3_0" tl="1/1" linkIndex="3" dir="l" state="o"/>
    <connection from="2/1to1/1" to="1/1to1/2" fromLane="0" toLane="0" via=":1/1_4_0" tl="1/1" linkIndex="4" dir="r" state="o"/>
    <connection from="2/1to1/1" to="1/1to0/1" fromLane="0" toLane="0" via=":1/1_5_0" tl="1/1" linkIndex="5" dir="s" state="o"/>
    <connection from="2/1to1/1" to="1/1to0/1" fromLane="1" toLane="1" via=":1/1_5_1" tl="1/1" linkIndex="6" dir="s" state="o"/>
    <connection from="2/1to1/1" to="1/1to1/0" fromLane="2" toLane="2" via=":1/1_7_0" tl="1/1" linkIndex="7" dir="l" state="o"/>

    <connection from=":0/1_0" to="0/1to1/1" fromLane="0" toLane="0" dir="t" state="M"/>
    <connection from=":0/1_0" to="0/1to1/1" fromLane="1" toLane="1" dir="t" state="M"/>
    <connection from=":0/1_0" to="0/1to1/1" fromLane="2" toLane="2" dir="t" state="M"/>
    <connection from=":1/0_0" to="1/0to1/1" fromLane="0" toLane="0" dir="t" state="M"/>
    <connection from=":1/0_0" to="1/0to1/1" fromLane="1" toLane="1" dir="t" state="M"/>
    <connection from=":1/0_0" to="1/0to1/1" fromLane="2" toLane="2" dir="t" state="M"/>
    <connection from=":1/1_0" to="1/1to0/1" fromLane="0" toLane="0" dir="r" state="M"/>
    <connection from=":1/1_1" to="1/1to1/0" fromLane="0" toLane="0" dir="s" state="M"/>
    <connection from=":1/1_1" to="1/1to1/0" fromLane="1" toLane="1" dir="s" state="M"/>
    <connection from=":1/1_3" to="1/1to2/1" fromLane="0" toLane="2" via=":1/1_16_0" dir="l" state="m"/>
    <connection from=":1/1_16" to="1/1to2/1" fromLane="0" toLane="2" dir="l" state="M"/>
    <connection from=":1/1_4" to="1/1to1/2" fromLane="0" toLane="0" dir="r" state="M"/>
    <connection from=":1/1_5" to="1/1to0/1" fromLane="0" toLane="0" dir="s" state="M"/>
    <connection from=":1/1_5" to="1/1to0/1" fromLane="1" toLane="1" dir="s" state="M"/>
    <connection from=":1/1_7" to="1/1to1/0" fromLane="0" toLane="2" via=":1/1_17_0" dir="l" state="m"/>
    <connection from=":1/1_17" to="1/1to1/0" fromLane="0" toLane="2" dir="l" state="M"/>
    <connection from=":1/1_8" to="1/1to2/1" fromLane="0" toLane="0" dir="r" state="M"/>
    <connection from=":1/1_9" to="1/1to1/2" fromLane="0" toLane="0" dir="s" state="M"/>
    <connection from=":1/1_9" to="1/1to1/2" fromLane="1" toLane="1" dir="s" state="M"/>
    <connection from=":1/1_11" to="1/1to0/1" fromLane="0" toLane="2" via=":1/1_18_0" dir="l" state="m"/>
    <connection from=":1/1_18" to="1/1to0/1" fromLane="0" toLane="2" dir="l" state="M"/>
    <connection from=":1/1_12" to="1/1to1/0" fromLane="0" toLane="0" dir="r" state="M"/>
    <connection from=":1/1_13" to="1/1to2/1" fromLane="0" toLane="0" dir="s" state="M"/>
    <connection from=":1/1_13" to="1/1to2/1" fromLane="1" toLane="1" dir="s" state="M"/>
    <connection from=":1/1_15" to="1/1to1/2" fromLane="0" toLane="2" via=":1/1_19_0" dir="l" state="m"/>
    <connection from=":1/1_19" to="1/1to1/2" fromLane="0" toLane="2" dir="l" state="M"/>
    <connection from=":1/2_0" to="1/2to1/1" fromLane="0" toLane="0" dir="t" state="M"/>
    <connection from=":1/2_0" to="1/2to1/1" fromLane="1" toLane="1" dir="t" state="M"/>
    <connection from=":1/2_0" to="1/2to1/1" fromLane="2" toLane="2" dir="t" state="M"/>
    <connection from=":2/1_0" to="2/1to1/1" fromLane="0" toLane="0" dir="t" state="M"/>
    <connection from=":2/1_0" to="2/1to1/1" fromLane="1" toLane="1" dir="t" state="M"/>
    <connection from=":2/1_0" to="2/1to1/1" fromLane="2" toLane="2" dir="t" state="M"/>

</net>
