<?xml version="1.0"?>
<!-- 
194 Cars leaving the Computer Science Building and campus of the University of Erlangen-Nuremberg
Copyright (C) 2008 Christoph Sommer <christoph.sommer@informatik.uni-erlangen.de>
Licensed under the Creative Commons Attribution-ShareAlike 2.0 license <http://creativecommons.org/licenses/by-sa/2.0/>
-->
<routes>
    <vType accel="2.6" decel="4.5" id="CarA" length="5" minGap="2.5" maxSpeed="40" sigma="0.5" guiShape="passenger"/>

    <vehicle id="0" type="CarA" depart="0.45" departSpeed="random" departPos="random_free" departLane="free" >
        <route edges="0/1to1/1 "/>
    </vehicle>	

    <flow id="0/1-0" type="CarA" begin="0" end="7200" period="3" departPos="0" departSpeed="max" departLane="free" >
        <route edges = "0/1to1/1 1/1to1/0"/>
    </flow>
<!--
    <flow id="0/1-1" type="CarA" begin="0" end="7200" period="3" departPos="0" departSpeed="max" departLane="free" >
        <route edges = "0/1to1/1 1/1to1/2"/>
    </flow>
    <flow id="0/1-2" type="CarA" begin="0" end="7200" period="3" departPos="0" departSpeed="max" departLane="free" >
        <route edges = "0/1to1/1 1/1to2/1"/>
    </flow>
    <flow id="1/0-0" type="CarA" begin="0" end="7200" period="15" departPos="0" departSpeed="max" departLane="free" >
        <route edges = "1/0to1/1 1/1to0/1"/>
    </flow>
    <flow id="1/0-1" type="CarA" begin="0" end="7200" period="15" departPos="0" departSpeed="max" departLane="free" >
        <route edges = "1/0to1/1 1/1to1/2"/>
    </flow>
    <flow id="1/0-2" type="CarA" begin="0" end="7200" period="15" departPos="0" departSpeed="max" departLane="free" >
        <route edges = "1/0to1/1 1/1to2/1"/>
    </flow>
    <flow id="1/2-0" type="CarA" begin="0" end="7200" period="15" departPos="0" departSpeed="max" departLane="free" >
        <route edges = "1/2to1/1 1/1to1/0"/>
    </flow>
    <flow id="1/2-1" type="CarA" begin="0" end="7200" period="15" departPos="0" departSpeed="max" departLane="free" >
        <route edges = "1/2to1/1 1/1to0/1"/>
    </flow>
    <flow id="1/2-2" type="CarA" begin="0" end="7200" period="15" departPos="0" departSpeed="max" departLane="free" >
        <route edges = "1/2to1/1 1/1to2/1"/>
    </flow>
    <flow id="2/1-0" type="CarA" begin="0" end="7200" period="3" departPos="0" departSpeed="max" departLane="free" >
        <route edges = "2/1to1/1 1/1to1/0"/>
    </flow>
    <flow id="2/1-1" type="CarA" begin="0" end="7200" period="3" departPos="0" departSpeed="max" departLane="free" >
        <route edges = "2/1to1/1 1/1to0/1"/>
    </flow>
    <flow id="2/1-2" type="CarA" begin="0" end="7200" period="3" departPos="0" departSpeed="max" departLane="free" >
        <route edges = "2/1to1/1 1/1to1/2"/>
    </flow>
-->
</routes>

